instances/data_GOC/Phase_0_Modified_RTS96/scenario_6/powersystem.raw
 0,  100.000000
rts96_spring_wday.raw / File written by to_psse.gms
5 / 19 / 2015
101, ' 101 ',138,2,1,1,1,1.00,0.00,1.1,0.9,1.1,0.9
102, ' 102 ',138,2,1,1,1,1.00,0.00,1.1,0.9,1.1,0.9
103, ' 103 ',138,1,1,1,1,1.00,0.00,1.1,0.9,1.1,0.9
104, ' 104 ',138,1,1,1,1,1.00,0.00,1.1,0.9,1.1,0.9
105, ' 105 ',138,1,1,1,1,1.00,0.00,1.1,0.9,1.1,0.9
106, ' 106 ',138,1,1,1,1,1.00,0.00,1.1,0.9,1.1,0.9
107, ' 107 ',138,2,1,1,1,1.00,0.00,1.1,0.9,1.1,0.9
108, ' 108 ',138,1,1,1,1,1.00,0.00,1.1,0.9,1.1,0.9
109, ' 109 ',138,1,1,1,1,1.00,0.00,1.1,0.9,1.1,0.9
110, ' 110 ',138,1,1,1,1,1.00,0.00,1.1,0.9,1.1,0.9
111, ' 111 ',230,1,1,1,1,1.00,0.00,1.1,0.9,1.1,0.9
112, ' 112 ',230,1,1,1,1,1.00,0.00,1.1,0.9,1.1,0.9
113, ' 113 ',230,3,1,1,1,1.00,0.00,1.1,0.9,1.1,0.9
114, ' 114 ',230,2,1,1,1,1.00,0.00,1.1,0.9,1.1,0.9
115, ' 115 ',230,2,1,1,1,1.00,0.00,1.1,0.9,1.1,0.9
116, ' 116 ',230,2,1,1,1,1.00,0.00,1.1,0.9,1.1,0.9
117, ' 117 ',230,1,1,1,1,1.00,0.00,1.1,0.9,1.1,0.9
118, ' 118 ',230,2,1,1,1,1.00,0.00,1.1,0.9,1.1,0.9
119, ' 119 ',230,1,1,1,1,1.00,0.00,1.1,0.9,1.1,0.9
120, ' 120 ',230,1,1,1,1,1.00,0.00,1.1,0.9,1.1,0.9
121, ' 121 ',230,2,1,1,1,1.00,0.00,1.1,0.9,1.1,0.9
122, ' 122 ',230,2,1,1,1,1.00,0.00,1.1,0.9,1.1,0.9
123, ' 123 ',230,2,1,1,1,1.00,0.00,1.1,0.9,1.1,0.9
124, ' 124 ',230,1,1,1,1,1.00,0.00,1.1,0.9,1.1,0.9
201, ' 201 ',138,2,1,1,1,1.00,0.00,1.1,0.9,1.1,0.9
202, ' 202 ',138,2,1,1,1,1.00,0.00,1.1,0.9,1.1,0.9
203, ' 203 ',138,1,1,1,1,1.00,0.00,1.1,0.9,1.1,0.9
204, ' 204 ',138,1,1,1,1,1.00,0.00,1.1,0.9,1.1,0.9
205, ' 205 ',138,1,1,1,1,1.00,0.00,1.1,0.9,1.1,0.9
206, ' 206 ',138,1,1,1,1,1.00,0.00,1.1,0.9,1.1,0.9
207, ' 207 ',138,2,1,1,1,1.00,0.00,1.1,0.9,1.1,0.9
208, ' 208 ',138,1,1,1,1,1.00,0.00,1.1,0.9,1.1,0.9
209, ' 209 ',138,1,1,1,1,1.00,0.00,1.1,0.9,1.1,0.9
210, ' 210 ',138,1,1,1,1,1.00,0.00,1.1,0.9,1.1,0.9
211, ' 211 ',230,1,1,1,1,1.00,0.00,1.1,0.9,1.1,0.9
212, ' 212 ',230,1,1,1,1,1.00,0.00,1.1,0.9,1.1,0.9
213, ' 213 ',230,2,1,1,1,1.00,0.00,1.1,0.9,1.1,0.9
214, ' 214 ',230,2,1,1,1,1.00,0.00,1.1,0.9,1.1,0.9
215, ' 215 ',230,2,1,1,1,1.00,0.00,1.1,0.9,1.1,0.9
216, ' 216 ',230,2,1,1,1,1.00,0.00,1.1,0.9,1.1,0.9
217, ' 217 ',230,1,1,1,1,1.00,0.00,1.1,0.9,1.1,0.9
218, ' 218 ',230,2,1,1,1,1.00,0.00,1.1,0.9,1.1,0.9
219, ' 219 ',230,1,1,1,1,1.00,0.00,1.1,0.9,1.1,0.9
220, ' 220 ',230,1,1,1,1,1.00,0.00,1.1,0.9,1.1,0.9
221, ' 221 ',230,2,1,1,1,1.00,0.00,1.1,0.9,1.1,0.9
222, ' 222 ',230,2,1,1,1,1.00,0.00,1.1,0.9,1.1,0.9
223, ' 223 ',230,2,1,1,1,1.00,0.00,1.1,0.9,1.1,0.9
224, ' 224 ',230,1,1,1,1,1.00,0.00,1.1,0.9,1.1,0.9
301, ' 301 ',138,2,1,1,1,1.00,0.00,1.1,0.9,1.1,0.9
302, ' 302 ',138,2,1,1,1,1.00,0.00,1.1,0.9,1.1,0.9
303, ' 303 ',138,1,1,1,1,1.00,0.00,1.1,0.9,1.1,0.9
304, ' 304 ',138,1,1,1,1,1.00,0.00,1.1,0.9,1.1,0.9
305, ' 305 ',138,1,1,1,1,1.00,0.00,1.1,0.9,1.1,0.9
306, ' 306 ',138,1,1,1,1,1.00,0.00,1.1,0.9,1.1,0.9
307, ' 307 ',138,2,1,1,1,1.00,0.00,1.1,0.9,1.1,0.9
308, ' 308 ',138,1,1,1,1,1.00,0.00,1.1,0.9,1.1,0.9
309, ' 309 ',138,1,1,1,1,1.00,0.00,1.1,0.9,1.1,0.9
310, ' 310 ',138,1,1,1,1,1.00,0.00,1.1,0.9,1.1,0.9
311, ' 311 ',230,1,1,1,1,1.00,0.00,1.1,0.9,1.1,0.9
312, ' 312 ',230,1,1,1,1,1.00,0.00,1.1,0.9,1.1,0.9
313, ' 313 ',230,2,1,1,1,1.00,0.00,1.1,0.9,1.1,0.9
314, ' 314 ',230,2,1,1,1,1.00,0.00,1.1,0.9,1.1,0.9
315, ' 315 ',230,2,1,1,1,1.00,0.00,1.1,0.9,1.1,0.9
316, ' 316 ',230,2,1,1,1,1.00,0.00,1.1,0.9,1.1,0.9
317, ' 317 ',230,1,1,1,1,1.00,0.00,1.1,0.9,1.1,0.9
318, ' 318 ',230,2,1,1,1,1.00,0.00,1.1,0.9,1.1,0.9
319, ' 319 ',230,1,1,1,1,1.00,0.00,1.1,0.9,1.1,0.9
320, ' 320 ',230,1,1,1,1,1.00,0.00,1.1,0.9,1.1,0.9
321, ' 321 ',230,2,1,1,1,1.00,0.00,1.1,0.9,1.1,0.9
322, ' 322 ',230,2,1,1,1,1.00,0.00,1.1,0.9,1.1,0.9
323, ' 323 ',230,2,1,1,1,1.00,0.00,1.1,0.9,1.1,0.9
324, ' 324 ',230,1,1,1,1,1.00,0.00,1.1,0.9,1.1,0.9
325, ' 325 ',230,1,1,1,1,1.00,0.00,1.1,0.9,1.1,0.9
0 / END OF BUS DATA, BEGIN LOAD DATA
101, '1 ',1,11,11,87.26104891322069,13.471512116966117,0.0,0.0,0.0,0.0,1,1,0
102, '1 ',1,11,12,50.327610161588616,12.133532995758578,0.0,0.0,0.0,0.0,1,1,0
103, '1 ',1,11,11,94.5212426074203,26.868433020727753,0.0,0.0,0.0,0.0,1,1,0
104, '1 ',1,11,11,57.4077460794202,10.265594381953356,0.0,0.0,0.0,0.0,1,1,0
105, '1 ',1,11,11,43.90475869262279,7.327598983888886,0.0,0.0,0.0,0.0,1,1,0
106, '1 ',1,11,12,70.24703644174039,24.114842940835096,0.0,0.0,0.0,0.0,1,1,0
107, '1 ',1,11,12,77.5414295258699,15.267183930196333,0.0,0.0,0.0,0.0,1,1,0
108, '1 ',1,11,12,142.52083584603585,30.391618196137014,0.0,0.0,0.0,0.0,1,1,0
109, '1 ',1,11,13,141.76810708338743,24.113061493822375,0.0,0.0,0.0,0.0,1,1,0
110, '1 ',1,11,13,100.98796251383538,20.901799330092963,0.0,0.0,0.0,0.0,1,1,0
111, '1 ',1,11,13,0.0,0.0,0.0,0.0,0.0,0.0,1,1,0
112, '1 ',1,11,13,0.0,0.0,0.0,0.0,0.0,0.0,1,1,0
113, '1 ',1,12,14,153.86719606174182,40.38425871968474,0.0,0.0,0.0,0.0,1,1,0
114, '1 ',1,12,16,106.52510020710072,23.805590706144784,0.0,0.0,0.0,0.0,1,1,0
115, '1 ',1,12,16,277.7506272311578,53.31461001365483,0.0,0.0,0.0,0.0,1,1,0
116, '1 ',1,12,16,73.69620661893859,11.733913070881737,0.0,0.0,0.0,0.0,1,1,0
117, '1 ',1,12,17,0.0,0.0,0.0,0.0,0.0,0.0,1,1,0
118, '1 ',1,12,17,219.07627952852576,49.33918225325849,0.0,0.0,0.0,0.0,1,1,0
119, '1 ',1,12,15,99.55996846349021,23.54717091631684,0.0,0.0,0.0,0.0,1,1,0
120, '1 ',1,12,15,96.76288933922052,19.008625693486444,0.0,0.0,0.0,0.0,1,1,0
121, '1 ',1,12,17,0.0,0.0,0.0,0.0,0.0,0.0,1,1,0
122, '1 ',1,12,17,0.0,0.0,0.0,0.0,0.0,0.0,1,1,0
123, '1 ',1,12,15,0.0,0.0,0.0,0.0,0.0,0.0,1,1,0
124, '1 ',1,12,16,0.0,0.0,0.0,0.0,0.0,0.0,1,1,0
201, '1 ',1,21,21,69.1484782230271,12.396979852931947,0.0,0.0,0.0,0.0,1,1,0
202, '1 ',1,21,22,70.75759543010003,14.227408014703542,0.0,0.0,0.0,0.0,1,1,0
203, '1 ',1,21,21,132.6913789256215,18.755998940620056,0.0,0.0,0.0,0.0,1,1,0
204, '1 ',1,21,21,47.72429772147853,10.426171896420652,0.0,0.0,0.0,0.0,1,1,0
205, '1 ',1,21,21,44.412509083072656,9.032397641727234,0.0,0.0,0.0,0.0,1,1,0
206, '1 ',1,21,22,122.0341957723964,13.931130465897917,0.0,0.0,0.0,0.0,1,1,0
207, '1 ',1,21,22,96.46545686848113,13.10378991103149,0.0,0.0,0.0,0.0,1,1,0
208, '1 ',1,21,22,142.17499697106916,23.72600795173994,0.0,0.0,0.0,0.0,1,1,0
209, '1 ',1,21,23,105.98735017665429,21.3706455119798,0.0,0.0,0.0,0.0,1,1,0
210, '1 ',1,21,23,147.78638776896125,26.526297454789276,0.0,0.0,0.0,0.0,1,1,0
211, '1 ',1,21,23,0.0,0.0,0.0,0.0,0.0,0.0,1,1,0
212, '1 ',1,21,23,0.0,0.0,0.0,0.0,0.0,0.0,1,1,0
213, '1 ',1,22,24,221.96226230593962,37.9031159025628,0.0,0.0,0.0,0.0,1,1,0
214, '1 ',1,22,26,95.77542961925269,22.88214110309081,0.0,0.0,0.0,0.0,1,1,0
215, '1 ',1,22,26,246.6018392694406,44.30235674748123,0.0,0.0,0.0,0.0,1,1,0
216, '1 ',1,22,26,52.23892192234285,17.52064778984897,0.0,0.0,0.0,0.0,1,1,0
217, '1 ',1,22,27,0.0,0.0,0.0,0.0,0.0,0.0,1,1,0
218, '1 ',1,22,27,294.6623195256145,38.071093634073435,0.0,0.0,0.0,0.0,1,1,0
219, '1 ',1,22,25,115.94842198315119,24.631955876107792,0.0,0.0,0.0,0.0,1,1,0
220, '1 ',1,22,25,63.2529423694074,17.01514031438213,0.0,0.0,0.0,0.0,1,1,0
221, '1 ',1,22,27,0.0,0.0,0.0,0.0,0.0,0.0,1,1,0
222, '1 ',1,22,27,0.0,0.0,0.0,0.0,0.0,0.0,1,1,0
223, '1 ',1,22,25,0.0,0.0,0.0,0.0,0.0,0.0,1,1,0
224, '1 ',1,22,26,0.0,0.0,0.0,0.0,0.0,0.0,1,1,0
301, '1 ',1,31,31,81.09911855238786,12.676113337783422,0.0,0.0,0.0,0.0,1,1,0
302, '1 ',1,31,32,59.96862069190499,16.477760203214363,0.0,0.0,0.0,0.0,1,1,0
303, '1 ',1,31,31,123.03880308804753,26.01416407658234,0.0,0.0,0.0,0.0,1,1,0
304, '1 ',1,31,31,50.36524616865562,11.060655702740885,0.0,0.0,0.0,0.0,1,1,0
305, '1 ',1,31,31,56.91828905265732,11.72064486930007,0.0,0.0,0.0,0.0,1,1,0
306, '1 ',1,31,32,106.49188570413665,14.204585384706036,0.0,0.0,0.0,0.0,1,1,0
307, '1 ',1,31,32,101.84435030265594,13.965760025001362,0.0,0.0,0.0,0.0,1,1,0
308, '1 ',1,31,32,123.61010929584238,24.049619387977987,0.0,0.0,0.0,0.0,1,1,0
309, '1 ',1,31,33,123.14213799295715,22.94004450652376,0.0,0.0,0.0,0.0,1,1,0
310, '1 ',1,31,33,118.40257367760711,36.033588233208285,0.0,0.0,0.0,0.0,1,1,0
311, '1 ',1,31,33,0.0,0.0,0.0,0.0,0.0,0.0,1,1,0
312, '1 ',1,31,33,0.0,0.0,0.0,0.0,0.0,0.0,1,1,0
313, '1 ',1,32,34,159.80310063705107,28.588506469198126,0.0,0.0,0.0,0.0,1,1,0
314, '1 ',1,32,36,102.98867201535758,31.972513303322113,0.0,0.0,0.0,0.0,1,1,0
315, '1 ',1,32,36,161.13582219367925,44.201866799846286,0.0,0.0,0.0,0.0,1,1,0
316, '1 ',1,32,36,75.79139625356532,17.41117960300762,0.0,0.0,0.0,0.0,1,1,0
317, '1 ',1,32,37,0.0,0.0,0.0,0.0,0.0,0.0,1,1,0
318, '1 ',1,32,37,280.5058131327839,38.04921860106513,0.0,0.0,0.0,0.0,1,1,0
319, '1 ',1,32,35,93.67869036215795,23.45253533736882,0.0,0.0,0.0,0.0,1,1,0
320, '1 ',1,32,35,101.68075902525185,22.10832801864557,0.0,0.0,0.0,0.0,1,1,0
321, '1 ',1,32,37,0.0,0.0,0.0,0.0,0.0,0.0,1,1,0
322, '1 ',1,32,37,0.0,0.0,0.0,0.0,0.0,0.0,1,1,0
323, '1 ',1,32,35,0.0,0.0,0.0,0.0,0.0,0.0,1,1,0
324, '1 ',1,32,36,0.0,0.0,0.0,0.0,0.0,0.0,1,1,0
325, '1 ',1,32,35,0.0,0.0,0.0,0.0,0.0,0.0,1,1,0
0 / END OF LOAD DATA, BEGIN FIXED SHUNT DATA
0 / END OF FIXED SHUNT DATA, BEGIN GENERATOR DATA
101,1,10,0,11.682695229072124,2.415543044451624,1.035,0,24,0,1,0,0,1,1,100,15.627170148305593,12.001323886895552,1,1,0,1
101,2,10,0,8.726767820771784,-1.809763512108475,1.035,0,24,0,1,0,0,1,1,100,23.34732047468424,19.31749159644358,1,1,0,1
101,3,76,14.1,32.299404739402235,-35.32507584639825,1.035,0,89,0,1,0,0,1,1,100,77.2186157906428,15.718212931044405,1,1,0,1
101,4,76,14.1,26.366455506999046,-44.93324586050585,1.035,0,89,0,1,0,0,1,1,100,87.31155532896518,31.125709787458185,1,1,0,1
102,5,10,0,12.22389888484031,4.1453485088422894,1.035,0,24,0,1,0,0,1,1,100,23.377376817166805,19.60123764869757,1,1,0,1
102,6,10,0,8.39538014959544,1.219518855214119,1.035,0,24,0,1,0,0,1,1,100,25.37664966285229,20.904443559683862,1,1,0,1
102,7,76,7,34.54388489155099,-27.514501036610454,1.035,0,89,0,1,0,0,1,1,100,90.92602409645916,45.13860608190299,1,1,0,1
102,8,76,7,32.791930155828595,-28.572074473369867,1.035,0,89,0,1,0,0,1,1,100,56.421132881008084,23.477312970265977,1,1,0,1
107,9,80,17.2,43.419526867568486,-10.819937858730562,1.025,0,118,0,1,0,0,1,1,100,82.25138024426997,41.62499367935977,1,1,0,1
107,10,80,17.2,48.03675021417439,-14.17236272804439,1.025,0,118,0,1,0,0,1,1,100,83.24319487903267,68.75021154324632,1,1,0,1
107,11,80,17.2,44.77847002632915,-13.445891638286419,1.025,0,118,0,1,0,0,1,1,100,126.3126748567447,61.44367617787793,1,1,0,1
113,12,95.1,40.7,64.75464563444257,-12.020724277943373,1.02,0,232,0,1,0,0,1,1,100,165.46086621256543,43.29241146083919,1,1,0,1
113,13,95.1,40.7,92.39989834278822,13.218440629541874,1.02,0,232,0,1,0,0,1,1,100,154.99662942411376,31.90394103359661,1,1,0,1
113,14,95.1,40.7,73.34157076105475,-15.092108476907015,1.02,0,232,0,1,0,0,1,1,100,202.094802028127,51.23969764884325,1,1,0,1
114,15,0,13.7,164.35129404999316,-10.917825775686651,0.98,0,100,0,1,0,0,1,1,100,0.0,0.0,1,1,0,1
115,16,12,0,5.834893386997283,0.5607806252315655,1.014,0,14,0,1,0,0,1,1,100,15.172737907245757,5.232352775707843,1,1,0,1
115,17,12,0,7.2260771364904945,1.4250645956955852,1.014,0,14,0,1,0,0,1,1,100,9.504241552948951,5.800352981915773,1,1,0,1
115,18,12,0,6.755185689590871,0.48457730272784705,1.014,0,14,0,1,0,0,1,1,100,9.886743751354516,2.833918475545943,1,1,0,1
115,19,12,0,5.025396075379103,-0.9659404045902207,1.014,0,14,0,1,0,0,1,1,100,11.349599306657911,3.7680712296813743,1,1,0,1
115,20,12,0,6.4360706574283535,0.006638573762029587,1.014,0,14,0,1,0,0,1,1,100,12.926725775375964,4.421175499185923,1,1,0,1
115,21,155,0.05,74.921750549227,-64.82012663781643,1.014,0,182,0,1,0,0,1,1,100,181.1974662465509,65.72907865933375,1,1,0,1
116,22,155,25.22,69.9908251836896,-46.208149063866585,1.017,0,182,0,1,0,0,1,1,100,196.1345183297526,81.22037386306329,1,1,0,1
118,23,400,137.4,171.62069311365485,-145.87031718343496,1.05,0,471,0,1,0,0,1,1,100,384.57195369526744,75.93106400687248,1,1,0,1
121,24,400,108.2,224.20459071174267,33.60809748293835,1.05,0,471,0,1,0,0,1,1,100,492.2118826024235,198.00924143753952,1,1,0,1
122,25,50,-4.96,18.686579513549805,-4.2985304771922515,1.05,0,53,0,1,0,0,1,1,100,58.17576589528471,17.83262390876189,1,1,0,1
122,26,50,-4.96,15.668414872139692,-6.595157538261265,1.05,0,53,0,1,0,0,1,1,100,43.37569679133594,17.515554736881786,1,1,0,1
122,27,50,-4.96,17.81218291968107,-10.395708680618554,1.05,0,53,0,1,0,0,1,1,100,53.116967994719744,9.435927428366723,1,1,0,1
122,28,50,-4.96,12.351001937687396,-19.92365529201925,1.05,0,53,0,1,0,0,1,1,100,62.45659674052148,26.40679488424211,1,1,0,1
122,29,50,-4.96,20.197977636754516,-12.117748763505368,1.05,0,53,0,1,0,0,1,1,100,40.49470325931907,20.57352642722002,1,1,0,1
122,30,50,-4.96,12.287394376844167,-6.086342526134102,1.05,0,53,0,1,0,0,1,1,100,63.79089906113222,21.091214746702462,1,1,0,1
123,31,155,31.79,56.443529032170765,-48.42106934729964,1.05,0,182,0,1,0,0,1,1,100,141.8553508031182,69.34630077071488,1,1,0,1
123,32,155,31.79,102.4186918400228,-1.2754151890985668,1.05,0,182,0,1,0,0,1,1,100,114.59249416808596,71.44164525641598,1,1,0,1
123,33,350,71.78,174.38909395365044,-7.584061459638178,1.05,0,412,0,1,0,0,1,1,100,255.69282186450434,14.659693820867659,1,1,0,1
201,34,10,0,10.737712339498103,1.1369114709086716,1.035,0,24,0,1,0,0,1,1,100,19.271348101086915,15.85427789637819,1,1,0,1
201,35,10,0,11.709159966558218,-0.6187002989463508,1.035,0,24,0,1,0,0,1,1,100,21.64111563190818,18.059841188099234,1,1,0,1
201,36,76,14.1,36.166894105263054,-23.507619770942263,1.035,0,89,0,1,0,0,1,1,100,59.538339629769325,45.48018031142695,1,1,0,1
201,37,76,14.1,30.70757375797257,-23.054226241772994,1.035,0,89,0,1,0,0,1,1,100,64.0431293029338,29.648019962469974,1,1,0,1
202,38,10,0,10.103218404576182,-0.7139912559650838,1.035,0,24,0,1,0,0,1,1,100,21.920114738866687,18.917042640736327,1,1,0,1
202,39,10,0,9.464284542016685,-0.6702120141126215,1.035,0,24,0,1,0,0,1,1,100,22.552606924436986,19.381264300085604,1,1,0,1
202,40,76,7,30.014092430938035,-21.124855395872146,1.035,0,89,0,1,0,0,1,1,100,95.17963553760202,18.879709002710882,1,1,0,1
202,41,76,7,34.745188902597874,-12.533508591819555,1.035,0,89,0,1,0,0,1,1,100,93.93992639593782,41.546350062117,1,1,0,1
207,42,80,17.2,46.7027195636183,-8.703063989058137,1.025,0,118,0,1,0,0,1,1,100,92.43087371811271,22.241059250663966,1,1,0,1
207,43,80,17.2,45.77051413245499,-26.08466609939933,1.025,0,118,0,1,0,0,1,1,100,117.78381705749781,55.31906452029945,1,1,0,1
207,44,80,17.2,76.42705863900483,25.535081748850644,1.025,0,118,0,1,0,0,1,1,100,129.83117362018675,70.45488618197851,1,1,0,1
213,45,95.1,40.7,67.92998465523124,7.122984308749437,1.02,0,232,0,1,0,0,1,1,100,148.5850967801176,28.385431882037402,1,1,0,1
213,46,95.1,40.7,65.35611894726753,-15.711429130285978,1.02,0,232,0,1,0,0,1,1,100,203.93265060745182,49.96461150389632,1,1,0,1
213,47,95.1,40.7,73.56458872929215,8.982683546841145,1.02,0,232,0,1,0,0,1,1,100,187.79289652081206,42.572584311726956,1,1,0,1
214,48,0,13.68,166.84658072888848,-78.65534462500366,0.98,0,100,0,1,0,0,1,1,100,0.0,0.0,1,1,0,1
215,49,12,0,6.642188770137728,0.329496015049517,1.014,0,14,0,1,0,0,1,1,100,10.878859479166568,2.01030391724802,1,1,0,1
215,50,12,0,6.098433497641235,0.7571812790818502,1.014,0,14,0,1,0,0,1,1,100,13.900730362907053,1.7138069426268352,1,1,0,1
215,51,12,0,6.572330715972931,1.0310337130911646,1.014,0,14,0,1,0,0,1,1,100,8.712919348105787,7.08636886340933,1,1,0,1
215,52,12,0,4.668008088972419,-0.15645027291029656,1.014,0,14,0,1,0,0,1,1,100,12.728364712558687,0.29101393070071957,1,1,0,1
215,53,12,0,4.540944647882133,-2.2853373393416403,1.014,0,14,0,1,0,0,1,1,100,11.50249543301761,3.1968721995502722,1,1,0,1
215,54,155,0.048,56.974740885198116,-111.55262149870396,1.014,0,182,0,1,0,0,1,1,100,157.68941147602163,45.44300455555786,1,1,0,1
216,55,155,25.22,87.99747983366251,-55.47513114660978,1.017,0,182,0,1,0,0,1,1,100,142.4525735913776,38.72123351176269,1,1,0,1
218,56,400,137.4,153.29371253959835,-166.2267874716781,1.05,0,471,0,1,0,0,1,1,100,479.0996587462724,117.43881360627717,1,1,0,1
221,57,400,108.2,170.52957121282816,-103.88754741055891,1.05,0,471,0,1,0,0,1,1,100,316.89979957416654,298.42712372476956,1,1,0,1
222,58,50,-4.96,19.759655630588533,-7.769539446476845,1.05,0,53,0,1,0,0,1,1,100,50.42740282602608,5.672702249139547,1,1,0,1
222,59,50,-4.96,18.19736827760935,-1.5311286805197568,1.05,0,53,0,1,0,0,1,1,100,64.11058235447854,24.95293773477897,1,1,0,1
222,60,50,-4.96,14.330631252378225,-17.990318605210632,1.05,0,53,0,1,0,0,1,1,100,50.99638256244361,0.7274797791615057,1,1,0,1
222,61,50,-4.96,19.641019858419895,-8.913605462945998,1.05,0,53,0,1,0,0,1,1,100,44.36386412475258,16.933337570825454,1,1,0,1
222,62,50,-4.96,19.629613196849824,-1.6489702450111494,1.05,0,53,0,1,0,0,1,1,100,51.750530959106975,17.86767853840636,1,1,0,1
222,63,50,-4.96,20.197794687747958,-10.10129701644182,1.05,0,53,0,1,0,0,1,1,100,39.768007278908044,13.566799340620697,1,1,0,1
223,64,155,31.79,77.98198413476348,-87.64769288757816,1.05,0,182,0,1,0,0,1,1,100,145.1290463411715,50.83654894372448,1,1,0,1
223,65,155,31.79,71.27773584797978,-87.97645068634304,1.05,0,182,0,1,0,0,1,1,100,125.74681914318353,49.49765379793244,1,1,0,1
223,66,350,71.78,168.32798319635913,5.134459113469347,1.05,0,412,0,1,0,0,1,1,100,254.0034543443471,76.19258870743215,1,1,0,1
301,67,10,0,8.894226412288845,-3.2450117846019566,1.035,0,24,0,1,0,0,1,1,100,14.246701862663029,9.034455104852094,1,1,0,1
301,68,10,0,11.25399870518595,3.164417462423444,1.035,0,24,0,1,0,0,1,1,100,24.665638599544764,20.66026754135266,1,1,0,1
301,69,76,14.1,37.63034351170063,-31.7239034390077,1.035,0,89,0,1,0,0,1,1,100,78.95633498784154,18.749162494055923,1,1,0,1
301,70,76,14.1,32.592568076681346,-13.085366474930197,1.035,0,89,0,1,0,0,1,1,100,88.883816081658,39.88779695354402,1,1,0,1
302,71,10,0,8.414054884575307,-0.17116005811840296,1.035,0,24,0,1,0,0,1,1,100,24.048424276523292,20.000673986990005,1,1,0,1
302,72,10,0,10.004446494858712,-0.052784535102546215,1.035,0,24,0,1,0,0,1,1,100,15.399570156820117,11.851479018237441,1,1,0,1
302,73,76,7,36.40452757710591,-15.8953049024567,1.035,0,89,0,1,0,0,1,1,100,94.6404576478526,32.98311882462353,1,1,0,1
302,74,76,7,28.474953705444932,-19.853275305824354,1.035,0,89,0,1,0,0,1,1,100,85.32728526797145,22.44144931685178,1,1,0,1
307,75,80,17.2,70.65236544236541,24.085766980424523,1.025,0,118,0,1,0,0,1,1,100,75.25986946187912,19.175303465108204,1,1,0,1
307,76,80,17.2,72.30591187812388,-3.5979295894503593,1.025,0,118,0,1,0,0,1,1,100,104.50446377974004,27.685309316730127,1,1,0,1
307,77,80,17.2,58.99195967707783,-14.712105760350823,1.025,0,118,0,1,0,0,1,1,100,70.74176512658596,27.24096676141878,1,1,0,1
313,78,95.1,40.7,93.57716806977987,10.060411389917135,1.02,0,232,0,1,0,0,1,1,100,163.8251855354756,1.6400627969407187,1,1,0,1
313,79,95.1,40.7,88.2210040576756,30.375887431204326,1.02,0,232,0,1,0,0,1,1,100,163.27935227295382,65.824284892166,1,1,0,1
313,80,95.1,40.7,75.99515018984675,6.08240632340312,1.02,0,232,0,1,0,0,1,1,100,247.63825403093364,145.25534075959587,1,1,0,1
314,81,0,13.68,156.87241379171607,-52.9672546242364,0.98,0,100,0,1,0,0,1,1,100,0.0,0.0,1,1,0,1
315,82,12,0,5.8060457454062995,-0.8364169620908806,1.014,0,14,0,1,0,0,1,1,100,10.648294505663216,1.8817519081011422,1,1,0,1
315,83,12,0,5.928159497492015,-1.1900406592525554,1.014,0,14,0,1,0,0,1,1,100,12.109288183785976,0.8994258945062779,1,1,0,1
315,84,12,0,7.419614105578511,1.686557177547365,1.014,0,14,0,1,0,0,1,1,100,10.93338949084282,3.2439273570477987,1,1,0,1
315,85,12,0,7.633001136314125,1.7843089582398548,1.014,0,14,0,1,0,0,1,1,100,15.472070741839708,4.082423730678858,1,1,0,1
315,86,12,0,4.917727888002991,0.3030543786473574,1.014,0,14,0,1,0,0,1,1,100,11.434633598662913,2.2656316122785203,1,1,0,1
315,87,155,0.048,91.80415104329586,-19.398584838025272,1.014,0,182,0,1,0,0,1,1,100,127.14138227934018,72.76180167382475,1,1,0,1
316,88,155,25.22,57.265237890183926,-63.08513045916334,1.017,0,182,0,1,0,0,1,1,100,141.27361264359206,63.4262635462801,1,1,0,1
318,89,400,137.4,242.31421934440735,10.99349466152492,1.05,0,471,0,1,0,0,1,1,100,334.9492801725864,153.22077943881828,1,1,0,1
321,90,400,108.2,253.74009042046967,-20.97801368450743,1.05,0,471,0,1,0,0,1,1,100,454.03941955417395,172.9887669160962,1,1,0,1
322,91,50,-4.96,15.105344388633966,-13.687042103428393,1.05,0,53,0,1,0,0,1,1,100,53.54690903564915,12.721707497896537,1,1,0,1
322,92,50,-4.96,17.02386553660035,-9.746818182151767,1.05,0,53,0,1,0,0,1,1,100,61.01312475511804,13.256336292251945,1,1,0,1
322,93,50,-4.96,18.60282955765724,-2.720407344587148,1.05,0,53,0,1,0,0,1,1,100,49.3773053959012,42.6992780041454,1,1,0,1
322,94,50,-4.96,14.58355391100049,-5.471812761016189,1.05,0,53,0,1,0,0,1,1,100,39.249037231784314,7.040724015418343,1,1,0,1
322,95,50,-4.96,11.98250021263957,-18.474339246191086,1.05,0,53,0,1,0,0,1,1,100,42.01729573076591,4.762344779446721,1,1,0,1
322,96,50,-4.96,17.099144987016917,-8.971493538562207,1.05,0,53,0,1,0,0,1,1,100,61.87093902844936,4.65673619415611,1,1,0,1
323,97,155,31.79,96.76744013279676,-13.113061261828989,1.05,0,182,0,1,0,0,1,1,100,167.90780445584096,57.134480826219075,1,1,0,1
323,98,155,31.79,69.29177338629961,-43.76568847615272,1.05,0,182,0,1,0,0,1,1,100,121.36978230183011,61.880970780705454,1,1,0,1
323,99,350,71.78,138.5722133796662,-50.26893805828877,1.05,0,412,0,1,0,0,1,1,100,394.0294263022952,178.08833285653964,1,1,0,1
0 / END OF GENERATOR DATA, BEGIN BRANCH DATA
101,102,1,0.003,0.014,0.461,210.0,231.6,240.0,0,0,0,0,1,1,0,1,1
101,103,1,0.055,0.211,0.057,210.0,249.6,264.0,0,0,0,0,1,1,0,1,1
101,105,1,0.022,0.085,0.023,210.0,249.6,264.0,0,0,0,0,1,1,0,1,1
102,104,1,0.033,0.127,0.034,210.0,249.6,264.0,0,0,0,0,1,1,0,1,1
102,106,1,0.05,0.192,0.052,210.0,249.6,264.0,0,0,0,0,1,1,0,1,1
103,109,1,0.031,0.119,0.032,210.0,249.6,264.0,0,0,0,0,1,1,0,1,1
104,109,1,0.027,0.104,0.028,210.0,249.6,264.0,0,0,0,0,1,1,0,1,1
105,110,1,0.023,0.088,0.024,210.0,249.6,264.0,0,0,0,0,1,1,0,1,1
106,110,1,0.014,0.061,2.459,210.0,231.6,240.0,0,0,0,0,1,1,0,1,1
107,108,1,0.016,0.061,0.017,210.0,249.6,264.0,0,0,0,0,1,1,0,1,1
107,203,1,0.042,0.161,0.044,210.0,249.6,264.0,0,0,0,0,1,1,0,1,1
108,109,1,0.043,0.165,0.045,210.0,249.6,264.0,0,0,0,0,1,1,0,1,1
108,110,1,0.043,0.165,0.045,210.0,249.6,264.0,0,0,0,0,1,1,0,1,1
111,113,1,0.006,0.048,0.1,600.0,720.0,750.0,0,0,0,0,1,1,0,1,1
111,114,1,0.005,0.042,0.088,600.0,720.0,750.0,0,0,0,0,1,1,0,1,1
112,113,1,0.006,0.048,0.1,600.0,720.0,750.0,0,0,0,0,1,1,0,1,1
112,123,1,0.012,0.097,0.203,600.0,720.0,750.0,0,0,0,0,1,1,0,1,1
113,123,1,0.011,0.087,0.182,600.0,720.0,750.0,0,0,0,0,1,1,0,1,1
113,215,1,0.01,0.075,0.158,600.0,720.0,750.0,0,0,0,0,1,1,0,1,1
114,116,1,0.005,0.059,0.082,600.0,720.0,750.0,0,0,0,0,1,1,0,1,1
115,116,1,0.002,0.017,0.036,600.0,720.0,750.0,0,0,0,0,1,1,0,1,1
115,121,1,0.006,0.049,0.103,600.0,720.0,750.0,0,0,0,0,1,1,0,1,1
115,121,2,0.006,0.049,0.103,600.0,720.0,750.0,0,0,0,0,1,1,0,1,1
115,124,1,0.007,0.052,0.109,600.0,720.0,750.0,0,0,0,0,1,1,0,1,1
116,117,1,0.003,0.026,0.055,600.0,720.0,750.0,0,0,0,0,1,1,0,1,1
116,119,1,0.003,0.023,0.049,600.0,720.0,750.0,0,0,0,0,1,1,0,1,1
117,118,1,0.002,0.014,0.03,600.0,720.0,750.0,0,0,0,0,1,1,0,1,1
117,122,1,0.014,0.105,0.221,600.0,720.0,750.0,0,0,0,0,1,1,0,1,1
118,121,1,0.003,0.026,0.055,600.0,720.0,750.0,0,0,0,0,1,1,0,1,1
118,121,2,0.003,0.026,0.055,600.0,720.0,750.0,0,0,0,0,1,1,0,1,1
119,120,1,0.005,0.04,0.083,600.0,720.0,750.0,0,0,0,0,1,1,0,1,1
119,120,2,0.005,0.04,0.083,600.0,720.0,750.0,0,0,0,0,1,1,0,1,1
120,123,1,0.003,0.022,0.046,600.0,720.0,750.0,0,0,0,0,1,1,0,1,1
120,123,2,0.003,0.022,0.046,600.0,720.0,750.0,0,0,0,0,1,1,0,1,1
121,122,1,0.009,0.068,0.142,600.0,720.0,750.0,0,0,0,0,1,1,0,1,1
123,217,1,0.01,0.074,0.155,600.0,720.0,750.0,0,0,0,0,1,1,0,1,1
201,202,1,0.003,0.014,0.461,210.0,231.6,240.0,0,0,0,0,1,1,0,1,1
201,203,1,0.055,0.211,0.057,210.0,249.6,264.0,0,0,0,0,1,1,0,1,1
201,205,1,0.022,0.085,0.023,210.0,249.6,264.0,0,0,0,0,1,1,0,1,1
202,204,1,0.033,0.127,0.034,210.0,249.6,264.0,0,0,0,0,1,1,0,1,1
202,206,1,0.05,0.192,0.052,210.0,249.6,264.0,0,0,0,0,1,1,0,1,1
203,209,1,0.031,0.119,0.032,210.0,249.6,264.0,0,0,0,0,1,1,0,1,1
204,209,1,0.027,0.104,0.028,210.0,249.6,264.0,0,0,0,0,1,1,0,1,1
205,210,1,0.023,0.088,0.024,210.0,249.6,264.0,0,0,0,0,1,1,0,1,1
206,210,1,0.014,0.061,2.459,210.0,231.6,240.0,0,0,0,0,1,1,0,1,1
207,208,1,0.016,0.061,0.017,210.0,249.6,264.0,0,0,0,0,1,1,0,1,1
208,209,1,0.043,0.165,0.045,210.0,249.6,264.0,0,0,0,0,1,1,0,1,1
208,210,1,0.043,0.165,0.045,210.0,249.6,264.0,0,0,0,0,1,1,0,1,1
211,213,1,0.006,0.048,0.1,600.0,720.0,750.0,0,0,0,0,1,1,0,1,1
211,214,1,0.005,0.042,0.088,600.0,720.0,750.0,0,0,0,0,1,1,0,1,1
212,213,1,0.006,0.048,0.1,600.0,720.0,750.0,0,0,0,0,1,1,0,1,1
212,223,1,0.012,0.097,0.203,600.0,720.0,750.0,0,0,0,0,1,1,0,1,1
213,223,1,0.011,0.087,0.182,600.0,720.0,750.0,0,0,0,0,1,1,0,1,1
214,216,1,0.005,0.059,0.082,600.0,720.0,750.0,0,0,0,0,1,1,0,1,1
215,216,1,0.002,0.017,0.036,600.0,720.0,750.0,0,0,0,0,1,1,0,1,1
215,221,1,0.006,0.049,0.103,600.0,720.0,750.0,0,0,0,0,1,1,0,1,1
215,221,2,0.006,0.049,0.103,600.0,720.0,750.0,0,0,0,0,1,1,0,1,1
215,224,1,0.007,0.052,0.109,600.0,720.0,750.0,0,0,0,0,1,1,0,1,1
216,217,1,0.003,0.026,0.055,600.0,720.0,750.0,0,0,0,0,1,1,0,1,1
216,219,1,0.003,0.023,0.049,600.0,720.0,750.0,0,0,0,0,1,1,0,1,1
217,218,1,0.002,0.014,0.03,600.0,720.0,750.0,0,0,0,0,1,1,0,1,1
217,222,1,0.014,0.105,0.221,600.0,720.0,750.0,0,0,0,0,1,1,0,1,1
218,221,1,0.003,0.026,0.055,600.0,720.0,750.0,0,0,0,0,1,1,0,1,1
218,221,2,0.003,0.026,0.055,600.0,720.0,750.0,0,0,0,0,1,1,0,1,1
219,220,1,0.005,0.04,0.083,600.0,720.0,750.0,0,0,0,0,1,1,0,1,1
219,220,2,0.005,0.04,0.083,600.0,720.0,750.0,0,0,0,0,1,1,0,1,1
220,223,1,0.003,0.022,0.046,600.0,720.0,750.0,0,0,0,0,1,1,0,1,1
220,223,2,0.003,0.022,0.046,600.0,720.0,750.0,0,0,0,0,1,1,0,1,1
221,222,1,0.009,0.068,0.142,600.0,720.0,750.0,0,0,0,0,1,1,0,1,1
301,302,1,0.003,0.014,0.461,210.0,231.6,240.0,0,0,0,0,1,1,0,1,1
301,303,1,0.055,0.211,0.057,210.0,249.6,264.0,0,0,0,0,1,1,0,1,1
301,305,1,0.022,0.085,0.023,210.0,249.6,264.0,0,0,0,0,1,1,0,1,1
302,304,1,0.033,0.127,0.034,210.0,249.6,264.0,0,0,0,0,1,1,0,1,1
302,306,1,0.05,0.192,0.052,210.0,249.6,264.0,0,0,0,0,1,1,0,1,1
303,309,1,0.031,0.119,0.032,210.0,249.6,264.0,0,0,0,0,1,1,0,1,1
304,309,1,0.027,0.104,0.028,210.0,249.6,264.0,0,0,0,0,1,1,0,1,1
305,310,1,0.023,0.088,0.024,210.0,249.6,264.0,0,0,0,0,1,1,0,1,1
306,310,1,0.014,0.061,2.459,210.0,231.6,240.0,0,0,0,0,1,1,0,1,1
307,308,1,0.016,0.061,0.017,210.0,249.6,264.0,0,0,0,0,1,1,0,1,1
308,309,1,0.043,0.165,0.045,210.0,249.6,264.0,0,0,0,0,1,1,0,1,1
308,310,1,0.043,0.165,0.045,210.0,249.6,264.0,0,0,0,0,1,1,0,1,1
311,313,1,0.006,0.048,0.1,600.0,720.0,750.0,0,0,0,0,1,1,0,1,1
311,314,1,0.005,0.042,0.088,600.0,720.0,750.0,0,0,0,0,1,1,0,1,1
312,313,1,0.006,0.048,0.1,600.0,720.0,750.0,0,0,0,0,1,1,0,1,1
312,323,1,0.012,0.097,0.203,600.0,720.0,750.0,0,0,0,0,1,1,0,1,1
313,323,1,0.011,0.087,0.182,600.0,720.0,750.0,0,0,0,0,1,1,0,1,1
314,316,1,0.005,0.059,0.082,600.0,720.0,750.0,0,0,0,0,1,1,0,1,1
315,316,1,0.002,0.017,0.036,600.0,720.0,750.0,0,0,0,0,1,1,0,1,1
315,321,1,0.006,0.049,0.103,600.0,720.0,750.0,0,0,0,0,1,1,0,1,1
315,321,2,0.006,0.049,0.103,600.0,720.0,750.0,0,0,0,0,1,1,0,1,1
315,324,1,0.007,0.052,0.109,600.0,720.0,750.0,0,0,0,0,1,1,0,1,1
316,317,1,0.003,0.026,0.055,600.0,720.0,750.0,0,0,0,0,1,1,0,1,1
316,319,1,0.003,0.023,0.049,600.0,720.0,750.0,0,0,0,0,1,1,0,1,1
317,318,1,0.002,0.014,0.03,600.0,720.0,750.0,0,0,0,0,1,1,0,1,1
317,322,1,0.014,0.105,0.221,600.0,720.0,750.0,0,0,0,0,1,1,0,1,1
318,223,1,0.013,0.104,0.218,600.0,720.0,750.0,0,0,0,0,1,1,0,1,1
318,321,1,0.003,0.026,0.055,600.0,720.0,750.0,0,0,0,0,1,1,0,1,1
318,321,2,0.003,0.026,0.055,600.0,720.0,750.0,0,0,0,0,1,1,0,1,1
319,320,1,0.005,0.04,0.083,600.0,720.0,750.0,0,0,0,0,1,1,0,1,1
319,320,2,0.005,0.04,0.083,600.0,720.0,750.0,0,0,0,0,1,1,0,1,1
320,323,1,0.003,0.022,0.046,600.0,720.0,750.0,0,0,0,0,1,1,0,1,1
320,323,2,0.003,0.022,0.046,600.0,720.0,750.0,0,0,0,0,1,1,0,1,1
321,322,1,0.009,0.068,0.142,600.0,720.0,750.0,0,0,0,0,1,1,0,1,1
323,325,1,0,0.009,0,866.4,1071.6,1071.6,0,0,0,0,1,1,0,1,1
0 / END OF BRANCH DATA, BEGIN TRANSFORMER DATA
  103 ,  124 , 0,  1 , 1, 1, 1, 0, 0, 2, '            ',  1 , 1, 1
   0.002000 ,  0.084000 ,  100.000000
   1.015000 , 0,  0.000000 ,  400.000000 ,  510.000000 ,  600.000000 , 0, 0,  1.10 ,  0.90 ,  1.10 ,  0.90 , 33, 0, 0, 0
   1.000000, 0
  109 ,  111 , 0,  1 , 1, 1, 1, 0, 0, 2, '            ',  1 , 1, 1
   0.002000 ,  0.084000 ,  100.000000
   1.030000 , 0,  0.000000 ,  400.000000 ,  510.000000 ,  600.000000 , 0, 0,  1.10 ,  0.90 ,  1.10 ,  0.90 , 33, 0, 0, 0
   1.000000, 0
  109 ,  112 , 0,  1 , 1, 1, 1, 0, 0, 2, '            ',  1 , 1, 1
   0.002000 ,  0.084000 ,  100.000000
   1.030000 , 0,  0.000000 ,  400.000000 ,  510.000000 ,  600.000000 , 0, 0,  1.10 ,  0.90 ,  1.10 ,  0.90 , 33, 0, 0, 0
   1.000000, 0
  110 ,  111 , 0,  1 , 1, 1, 1, 0, 0, 2, '            ',  1 , 1, 1
   0.002000 ,  0.084000 ,  100.000000
   1.015000 , 0,  0.000000 ,  400.000000 ,  510.000000 ,  600.000000 , 0, 0,  1.10 ,  0.90 ,  1.10 ,  0.90 , 33, 0, 0, 0
   1.000000, 0
  110 ,  112 , 0,  1 , 1, 1, 1, 0, 0, 2, '            ',  1 , 1, 1
   0.002000 ,  0.084000 ,  100.000000
   1.015000 , 0,  0.000000 ,  400.000000 ,  510.000000 ,  600.000000 , 0, 0,  1.10 ,  0.90 ,  1.10 ,  0.90 , 33, 0, 0, 0
   1.000000, 0
  203 ,  224 , 0,  1 , 1, 1, 1, 0, 0, 2, '            ',  1 , 1, 1
   0.002000 ,  0.084000 ,  100.000000
   1.015000 , 0,  0.000000 ,  400.000000 ,  510.000000 ,  600.000000 , 0, 0,  1.10 ,  0.90 ,  1.10 ,  0.90 , 33, 0, 0, 0
   1.000000, 0
  209 ,  211 , 0,  1 , 1, 1, 1, 0, 0, 2, '            ',  1 , 1, 1
   0.002000 ,  0.084000 ,  100.000000
   1.030000 , 0,  0.000000 ,  400.000000 ,  510.000000 ,  600.000000 , 0, 0,  1.10 ,  0.90 ,  1.10 ,  0.90 , 33, 0, 0, 0
   1.000000, 0
  209 ,  212 , 0,  1 , 1, 1, 1, 0, 0, 2, '            ',  1 , 1, 1
   0.002000 ,  0.084000 ,  100.000000
   1.030000 , 0,  0.000000 ,  400.000000 ,  510.000000 ,  600.000000 , 0, 0,  1.10 ,  0.90 ,  1.10 ,  0.90 , 33, 0, 0, 0
   1.000000, 0
  210 ,  211 , 0,  1 , 1, 1, 1, 0, 0, 2, '            ',  1 , 1, 1
   0.002000 ,  0.084000 ,  100.000000
   1.015000 , 0,  0.000000 ,  400.000000 ,  510.000000 ,  600.000000 , 0, 0,  1.10 ,  0.90 ,  1.10 ,  0.90 , 33, 0, 0, 0
   1.000000, 0
  210 ,  212 , 0,  1 , 1, 1, 1, 0, 0, 2, '            ',  1 , 1, 1
   0.002000 ,  0.084000 ,  100.000000
   1.015000 , 0,  0.000000 ,  400.000000 ,  510.000000 ,  600.000000 , 0, 0,  1.10 ,  0.90 ,  1.10 ,  0.90 , 33, 0, 0, 0
   1.000000, 0
  303 ,  324 , 0,  1 , 1, 1, 1, 0, 0, 2, '            ',  1 , 1, 1
   0.002000 ,  0.084000 ,  100.000000
   1.015000 , 0,  0.000000 ,  400.000000 ,  510.000000 ,  600.000000 , 0, 0,  1.10 ,  0.90 ,  1.10 ,  0.90 , 33, 0, 0, 0
   1.000000, 0
  309 ,  311 , 0,  1 , 1, 1, 1, 0, 0, 2, '            ',  1 , 1, 1
   0.002000 ,  0.084000 ,  100.000000
   1.030000 , 0,  0.000000 ,  400.000000 ,  510.000000 ,  600.000000 , 0, 0,  1.10 ,  0.90 ,  1.10 ,  0.90 , 33, 0, 0, 0
   1.000000, 0
  309 ,  312 , 0,  1 , 1, 1, 1, 0, 0, 2, '            ',  1 , 1, 1
   0.002000 ,  0.084000 ,  100.000000
   1.030000 , 0,  0.000000 ,  400.000000 ,  510.000000 ,  600.000000 , 0, 0,  1.10 ,  0.90 ,  1.10 ,  0.90 , 33, 0, 0, 0
   1.000000, 0
  310 ,  311 , 0,  1 , 1, 1, 1, 0, 0, 2, '            ',  1 , 1, 1
   0.002000 ,  0.084000 ,  100.000000
   1.015000 , 0,  0.000000 ,  400.000000 ,  510.000000 ,  600.000000 , 0, 0,  1.10 ,  0.90 ,  1.10 ,  0.90 , 33, 0, 0, 0
   1.000000, 0
  310 ,  312 , 0,  1 , 1, 1, 1, 0, 0, 2, '            ',  1 , 1, 1
   0.002000 ,  0.084000 ,  100.000000
   1.015000 , 0,  0.000000 ,  400.000000 ,  510.000000 ,  600.000000 , 0, 0,  1.10 ,  0.90 ,  1.10 ,  0.90 , 33, 0, 0, 0
   1.000000, 0
0 / END OF TRANSFORMER DATA, BEGIN AREA DATA
0 / END OF AREA DATA, BEGIN TWO-TERMINAL DC DATA
0 / END OF TWO-TERMINAL DC DATA, BEGIN VSC DC LINE DATA
0 / END OF VSC DC LINE DATA, BEGIN SWITCHED SHUNT DATA
0 / END OF SWITCHED SHUNT DATA, BEGIN IMPEDANCE CORRECTION DATA
0 / END OF IMPEDANCE CORRECTION DATA, BEGIN MULTI-TERMINAL DC DATA
0 / END OF MULTI-TERMINAL DC DATA, BEGIN MULTI-SECTION LINE DATA
0 / END OF MULTI-SECTION LINE DATA, BEGIN ZONE DATA
0 / END OF ZONE DATA, BEGIN INTER-AREA TRANSFER DATA
0 / END OF INTER-AREA TRANSFER DATA, BEGIN OWNER DATA
0 / END OF OWNER DATA, BEGIN FACTS CONTROL DEVICE DATA
0 / END OF FACTS CONTROL DEVICE DATA
0 / END OF SWITCHED SHUNT DATA, BEGIN GNE DATA
0 / END OF GNE DATA, BEGIN INDUCTION MACHINE DATA
0 / END OF INDUCTION MACHINE DATA
Q 
